<?xml version="1.0" encoding="UTF-8"?>

<!-- generated on 2026-06-21 00:25:21.205256 by randomTrips.py v1_22_0+0002-63e50f52594
<configuration>
    <net-file value="single.net.xml"/>
    <output-trip-file value="single.trips.xml"/>
    <route-file value="single.rou.xml"/>
    <fringe-factor value="20"/>
    <remove-loops value="True"/>
    <validate value="True"/>
    <period value="1.3"/>
</configuration>
-->

<!-- generated on 2026-06-21 00:25:21 by Eclipse SUMO duarouter Version 1.22.0
<duarouterConfiguration xmlns:xsi="http://www.w3.org/2001/XMLSchema-instance" xsi:noNamespaceSchemaLocation="http://sumo.dlr.de/xsd/duarouterConfiguration.xsd">

    <input>
        <net-file value="single.net.xml"/>
        <route-files value="single.trips.xml"/>
    </input>

    <output>
        <output-file value="single.rou.xml"/>
        <alternatives-output value="NUL"/>
    </output>

    <processing>
        <remove-loops value="true"/>
    </processing>

    <time>
        <begin value="0.0"/>
        <end value="3600.0"/>
    </time>

    <report>
        <no-warnings value="true"/>
        <ignore-errors value="true"/>
        <no-step-log value="true"/>
    </report>

</duarouterConfiguration>
-->

<routes xmlns:xsi="http://www.w3.org/2001/XMLSchema-instance" xsi:noNamespaceSchemaLocation="http://sumo.dlr.de/xsd/routes_file.xsd">
    <vehicle id="0" depart="0.00">
        <route edges="S2C C2E"/>
    </vehicle>
    <vehicle id="1" depart="1.30">
        <route edges="N2C C2E"/>
    </vehicle>
    <vehicle id="3" depart="3.90">
        <route edges="W2C C2E"/>
    </vehicle>
    <vehicle id="4" depart="5.20">
        <route edges="N2C C2E"/>
    </vehicle>
    <vehicle id="5" depart="6.50">
        <route edges="E2C C2S"/>
    </vehicle>
    <vehicle id="8" depart="10.40">
        <route edges="E2C C2S"/>
    </vehicle>
    <vehicle id="9" depart="11.70">
        <route edges="W2C C2E"/>
    </vehicle>
    <vehicle id="10" depart="13.00">
        <route edges="W2C C2S"/>
    </vehicle>
    <vehicle id="11" depart="14.30">
        <route edges="N2C C2E"/>
    </vehicle>
    <vehicle id="12" depart="15.60">
        <route edges="W2C C2N"/>
    </vehicle>
    <vehicle id="14" depart="18.20">
        <route edges="W2C C2S"/>
    </vehicle>
    <vehicle id="15" depart="19.50">
        <route edges="W2C C2S"/>
    </vehicle>
    <vehicle id="16" depart="20.80">
        <route edges="S2C C2W"/>
    </vehicle>
    <vehicle id="17" depart="22.10">
        <route edges="N2C C2S"/>
    </vehicle>
    <vehicle id="18" depart="23.40">
        <route edges="W2C C2S"/>
    </vehicle>
    <vehicle id="19" depart="24.70">
        <route edges="W2C C2S"/>
    </vehicle>
    <vehicle id="20" depart="26.00">
        <route edges="S2C C2E"/>
    </vehicle>
    <vehicle id="21" depart="27.30">
        <route edges="E2C C2N"/>
    </vehicle>
    <vehicle id="23" depart="29.90">
        <route edges="E2C C2N"/>
    </vehicle>
    <vehicle id="24" depart="31.20">
        <route edges="S2C C2N"/>
    </vehicle>
    <vehicle id="25" depart="32.50">
        <route edges="N2C C2E"/>
    </vehicle>
    <vehicle id="26" depart="33.80">
        <route edges="N2C C2W"/>
    </vehicle>
    <vehicle id="28" depart="36.40">
        <route edges="E2C C2S"/>
    </vehicle>
    <vehicle id="29" depart="37.70">
        <route edges="E2C C2N"/>
    </vehicle>
    <vehicle id="30" depart="39.00">
        <route edges="W2C C2S"/>
    </vehicle>
    <vehicle id="35" depart="45.50">
        <route edges="E2C C2W"/>
    </vehicle>
    <vehicle id="36" depart="46.80">
        <route edges="W2C C2N"/>
    </vehicle>
    <vehicle id="37" depart="48.10">
        <route edges="S2C C2N"/>
    </vehicle>
    <vehicle id="38" depart="49.40">
        <route edges="W2C C2N"/>
    </vehicle>
    <vehicle id="39" depart="50.70">
        <route edges="N2C C2E"/>
    </vehicle>
    <vehicle id="40" depart="52.00">
        <route edges="S2C C2N"/>
    </vehicle>
    <vehicle id="41" depart="53.30">
        <route edges="S2C C2W"/>
    </vehicle>
    <vehicle id="42" depart="54.60">
        <route edges="N2C C2E"/>
    </vehicle>
    <vehicle id="43" depart="55.90">
        <route edges="W2C C2S"/>
    </vehicle>
    <vehicle id="45" depart="58.50">
        <route edges="E2C C2S"/>
    </vehicle>
    <vehicle id="46" depart="59.80">
        <route edges="W2C C2N"/>
    </vehicle>
    <vehicle id="47" depart="61.10">
        <route edges="E2C C2N"/>
    </vehicle>
    <vehicle id="48" depart="62.40">
        <route edges="W2C C2S"/>
    </vehicle>
    <vehicle id="50" depart="65.00">
        <route edges="E2C C2S"/>
    </vehicle>
    <vehicle id="52" depart="67.60">
        <route edges="N2C C2S"/>
    </vehicle>
    <vehicle id="53" depart="68.90">
        <route edges="E2C C2N"/>
    </vehicle>
    <vehicle id="54" depart="70.20">
        <route edges="N2C C2W"/>
    </vehicle>
    <vehicle id="55" depart="71.50">
        <route edges="W2C C2N"/>
    </vehicle>
    <vehicle id="56" depart="72.80">
        <route edges="S2C C2E"/>
    </vehicle>
    <vehicle id="58" depart="75.40">
        <route edges="N2C C2S"/>
    </vehicle>
    <vehicle id="59" depart="76.70">
        <route edges="S2C C2E"/>
    </vehicle>
    <vehicle id="60" depart="78.00">
        <route edges="W2C C2S"/>
    </vehicle>
    <vehicle id="61" depart="79.30">
        <route edges="W2C C2S"/>
    </vehicle>
    <vehicle id="62" depart="80.60">
        <route edges="E2C C2N"/>
    </vehicle>
    <vehicle id="63" depart="81.90">
        <route edges="E2C C2W"/>
    </vehicle>
    <vehicle id="65" depart="84.50">
        <route edges="N2C C2E"/>
    </vehicle>
    <vehicle id="67" depart="87.10">
        <route edges="E2C C2N"/>
    </vehicle>
    <vehicle id="68" depart="88.40">
        <route edges="E2C C2W"/>
    </vehicle>
    <vehicle id="69" depart="89.70">
        <route edges="W2C C2E"/>
    </vehicle>
    <vehicle id="70" depart="91.00">
        <route edges="N2C C2S"/>
    </vehicle>
    <vehicle id="71" depart="92.30">
        <route edges="N2C C2W"/>
    </vehicle>
    <vehicle id="72" depart="93.60">
        <route edges="N2C C2E"/>
    </vehicle>
    <vehicle id="74" depart="96.20">
        <route edges="E2C C2N"/>
    </vehicle>
    <vehicle id="75" depart="97.50">
        <route edges="W2C C2S"/>
    </vehicle>
    <vehicle id="76" depart="98.80">
        <route edges="N2C C2S"/>
    </vehicle>
    <vehicle id="78" depart="101.40">
        <route edges="N2C C2S"/>
    </vehicle>
    <vehicle id="80" depart="104.00">
        <route edges="E2C C2S"/>
    </vehicle>
    <vehicle id="81" depart="105.30">
        <route edges="E2C C2W"/>
    </vehicle>
    <vehicle id="82" depart="106.60">
        <route edges="W2C C2E"/>
    </vehicle>
    <vehicle id="83" depart="107.90">
        <route edges="E2C C2S"/>
    </vehicle>
    <vehicle id="85" depart="110.50">
        <route edges="W2C C2S"/>
    </vehicle>
    <vehicle id="86" depart="111.80">
        <route edges="N2C C2W"/>
    </vehicle>
    <vehicle id="87" depart="113.10">
        <route edges="W2C C2E"/>
    </vehicle>
    <vehicle id="88" depart="114.40">
        <route edges="E2C C2N"/>
    </vehicle>
    <vehicle id="91" depart="118.30">
        <route edges="W2C C2E"/>
    </vehicle>
    <vehicle id="93" depart="120.90">
        <route edges="W2C C2E"/>
    </vehicle>
    <vehicle id="94" depart="122.20">
        <route edges="E2C C2N"/>
    </vehicle>
    <vehicle id="96" depart="124.80">
        <route edges="E2C C2W"/>
    </vehicle>
    <vehicle id="97" depart="126.10">
        <route edges="N2C C2W"/>
    </vehicle>
    <vehicle id="98" depart="127.40">
        <route edges="S2C C2E"/>
    </vehicle>
    <vehicle id="101" depart="131.30">
        <route edges="W2C C2E"/>
    </vehicle>
    <vehicle id="102" depart="132.60">
        <route edges="N2C C2E"/>
    </vehicle>
    <vehicle id="103" depart="133.90">
        <route edges="N2C C2E"/>
    </vehicle>
    <vehicle id="104" depart="135.20">
        <route edges="N2C C2W"/>
    </vehicle>
    <vehicle id="105" depart="136.50">
        <route edges="N2C C2W"/>
    </vehicle>
    <vehicle id="109" depart="141.70">
        <route edges="E2C C2N"/>
    </vehicle>
    <vehicle id="110" depart="143.00">
        <route edges="W2C C2S"/>
    </vehicle>
    <vehicle id="112" depart="145.60">
        <route edges="E2C C2S"/>
    </vehicle>
    <vehicle id="113" depart="146.90">
        <route edges="S2C C2W"/>
    </vehicle>
    <vehicle id="114" depart="148.20">
        <route edges="E2C C2W"/>
    </vehicle>
    <vehicle id="118" depart="153.40">
        <route edges="W2C C2E"/>
    </vehicle>
    <vehicle id="120" depart="156.00">
        <route edges="N2C C2S"/>
    </vehicle>
    <vehicle id="121" depart="157.30">
        <route edges="S2C C2W"/>
    </vehicle>
    <vehicle id="122" depart="158.60">
        <route edges="E2C C2S"/>
    </vehicle>
    <vehicle id="123" depart="159.90">
        <route edges="E2C C2N"/>
    </vehicle>
    <vehicle id="124" depart="161.20">
        <route edges="S2C C2N"/>
    </vehicle>
    <vehicle id="125" depart="162.50">
        <route edges="N2C C2W"/>
    </vehicle>
    <vehicle id="126" depart="163.80">
        <route edges="E2C C2N"/>
    </vehicle>
    <vehicle id="129" depart="167.70">
        <route edges="N2C C2W"/>
    </vehicle>
    <vehicle id="131" depart="170.30">
        <route edges="N2C C2E"/>
    </vehicle>
    <vehicle id="132" depart="171.60">
        <route edges="W2C C2S"/>
    </vehicle>
    <vehicle id="133" depart="172.90">
        <route edges="S2C C2W"/>
    </vehicle>
    <vehicle id="134" depart="174.20">
        <route edges="S2C C2E"/>
    </vehicle>
    <vehicle id="135" depart="175.50">
        <route edges="W2C C2N"/>
    </vehicle>
    <vehicle id="136" depart="176.80">
        <route edges="S2C C2W"/>
    </vehicle>
    <vehicle id="138" depart="179.40">
        <route edges="E2C C2S"/>
    </vehicle>
    <vehicle id="139" depart="180.70">
        <route edges="N2C C2S"/>
    </vehicle>
    <vehicle id="140" depart="182.00">
        <route edges="S2C C2E"/>
    </vehicle>
    <vehicle id="141" depart="183.30">
        <route edges="S2C C2N"/>
    </vehicle>
    <vehicle id="142" depart="184.60">
        <route edges="N2C C2W"/>
    </vehicle>
    <vehicle id="143" depart="185.90">
        <route edges="W2C C2E"/>
    </vehicle>
    <vehicle id="145" depart="188.50">
        <route edges="E2C C2W"/>
    </vehicle>
    <vehicle id="146" depart="189.80">
        <route edges="S2C C2N"/>
    </vehicle>
    <vehicle id="148" depart="192.40">
        <route edges="N2C C2E"/>
    </vehicle>
    <vehicle id="149" depart="193.70">
        <route edges="E2C C2W"/>
    </vehicle>
    <vehicle id="150" depart="195.00">
        <route edges="W2C C2S"/>
    </vehicle>
    <vehicle id="151" depart="196.30">
        <route edges="W2C C2S"/>
    </vehicle>
    <vehicle id="153" depart="198.90">
        <route edges="N2C C2W"/>
    </vehicle>
    <vehicle id="155" depart="201.50">
        <route edges="W2C C2E"/>
    </vehicle>
    <vehicle id="158" depart="205.40">
        <route edges="N2C C2S"/>
    </vehicle>
    <vehicle id="159" depart="206.70">
        <route edges="E2C C2W"/>
    </vehicle>
    <vehicle id="162" depart="210.60">
        <route edges="E2C C2S"/>
    </vehicle>
    <vehicle id="163" depart="211.90">
        <route edges="N2C C2W"/>
    </vehicle>
    <vehicle id="165" depart="214.50">
        <route edges="W2C C2N"/>
    </vehicle>
    <vehicle id="166" depart="215.80">
        <route edges="W2C C2E"/>
    </vehicle>
    <vehicle id="168" depart="218.40">
        <route edges="E2C C2W"/>
    </vehicle>
    <vehicle id="170" depart="221.00">
        <route edges="W2C C2E"/>
    </vehicle>
    <vehicle id="172" depart="223.60">
        <route edges="N2C C2W"/>
    </vehicle>
    <vehicle id="173" depart="224.90">
        <route edges="W2C C2N"/>
    </vehicle>
    <vehicle id="174" depart="226.20">
        <route edges="S2C C2N"/>
    </vehicle>
    <vehicle id="175" depart="227.50">
        <route edges="W2C C2S"/>
    </vehicle>
    <vehicle id="176" depart="228.80">
        <route edges="W2C C2E"/>
    </vehicle>
    <vehicle id="177" depart="230.10">
        <route edges="W2C C2E"/>
    </vehicle>
    <vehicle id="178" depart="231.40">
        <route edges="W2C C2N"/>
    </vehicle>
    <vehicle id="179" depart="232.70">
        <route edges="E2C C2N"/>
    </vehicle>
    <vehicle id="180" depart="234.00">
        <route edges="S2C C2N"/>
    </vehicle>
    <vehicle id="182" depart="236.60">
        <route edges="N2C C2S"/>
    </vehicle>
    <vehicle id="183" depart="237.90">
        <route edges="N2C C2S"/>
    </vehicle>
    <vehicle id="184" depart="239.20">
        <route edges="E2C C2W"/>
    </vehicle>
    <vehicle id="187" depart="243.10">
        <route edges="N2C C2E"/>
    </vehicle>
    <vehicle id="188" depart="244.40">
        <route edges="S2C C2N"/>
    </vehicle>
    <vehicle id="189" depart="245.70">
        <route edges="N2C C2W"/>
    </vehicle>
    <vehicle id="190" depart="247.00">
        <route edges="S2C C2N"/>
    </vehicle>
    <vehicle id="193" depart="250.90">
        <route edges="E2C C2N"/>
    </vehicle>
    <vehicle id="194" depart="252.20">
        <route edges="W2C C2S"/>
    </vehicle>
    <vehicle id="195" depart="253.50">
        <route edges="W2C C2S"/>
    </vehicle>
    <vehicle id="196" depart="254.80">
        <route edges="N2C C2S"/>
    </vehicle>
    <vehicle id="197" depart="256.10">
        <route edges="E2C C2N"/>
    </vehicle>
    <vehicle id="198" depart="257.40">
        <route edges="N2C C2S"/>
    </vehicle>
    <vehicle id="199" depart="258.70">
        <route edges="S2C C2N"/>
    </vehicle>
    <vehicle id="200" depart="260.00">
        <route edges="N2C C2E"/>
    </vehicle>
    <vehicle id="201" depart="261.30">
        <route edges="N2C C2W"/>
    </vehicle>
    <vehicle id="202" depart="262.60">
        <route edges="W2C C2E"/>
    </vehicle>
    <vehicle id="203" depart="263.90">
        <route edges="E2C C2S"/>
    </vehicle>
    <vehicle id="204" depart="265.20">
        <route edges="S2C C2N"/>
    </vehicle>
    <vehicle id="206" depart="267.80">
        <route edges="S2C C2E"/>
    </vehicle>
    <vehicle id="208" depart="270.40">
        <route edges="E2C C2N"/>
    </vehicle>
    <vehicle id="209" depart="271.70">
        <route edges="W2C C2E"/>
    </vehicle>
    <vehicle id="210" depart="273.00">
        <route edges="N2C C2S"/>
    </vehicle>
    <vehicle id="211" depart="274.30">
        <route edges="E2C C2S"/>
    </vehicle>
    <vehicle id="212" depart="275.60">
        <route edges="N2C C2E"/>
    </vehicle>
    <vehicle id="213" depart="276.90">
        <route edges="S2C C2E"/>
    </vehicle>
    <vehicle id="215" depart="279.50">
        <route edges="E2C C2N"/>
    </vehicle>
    <vehicle id="216" depart="280.80">
        <route edges="E2C C2W"/>
    </vehicle>
    <vehicle id="217" depart="282.10">
        <route edges="S2C C2E"/>
    </vehicle>
    <vehicle id="218" depart="283.40">
        <route edges="E2C C2W"/>
    </vehicle>
    <vehicle id="219" depart="284.70">
        <route edges="N2C C2W"/>
    </vehicle>
    <vehicle id="220" depart="286.00">
        <route edges="S2C C2W"/>
    </vehicle>
    <vehicle id="221" depart="287.30">
        <route edges="S2C C2W"/>
    </vehicle>
    <vehicle id="222" depart="288.60">
        <route edges="W2C C2S"/>
    </vehicle>
    <vehicle id="224" depart="291.20">
        <route edges="W2C C2S"/>
    </vehicle>
    <vehicle id="225" depart="292.50">
        <route edges="W2C C2S"/>
    </vehicle>
    <vehicle id="227" depart="295.10">
        <route edges="E2C C2S"/>
    </vehicle>
    <vehicle id="228" depart="296.40">
        <route edges="W2C C2S"/>
    </vehicle>
    <vehicle id="229" depart="297.70">
        <route edges="S2C C2N"/>
    </vehicle>
    <vehicle id="230" depart="299.00">
        <route edges="E2C C2N"/>
    </vehicle>
    <vehicle id="232" depart="301.60">
        <route edges="S2C C2E"/>
    </vehicle>
    <vehicle id="233" depart="302.90">
        <route edges="E2C C2S"/>
    </vehicle>
    <vehicle id="234" depart="304.20">
        <route edges="S2C C2E"/>
    </vehicle>
    <vehicle id="235" depart="305.50">
        <route edges="N2C C2S"/>
    </vehicle>
    <vehicle id="236" depart="306.80">
        <route edges="N2C C2E"/>
    </vehicle>
    <vehicle id="237" depart="308.10">
        <route edges="N2C C2W"/>
    </vehicle>
    <vehicle id="240" depart="312.00">
        <route edges="N2C C2E"/>
    </vehicle>
    <vehicle id="241" depart="313.30">
        <route edges="N2C C2W"/>
    </vehicle>
    <vehicle id="243" depart="315.90">
        <route edges="N2C C2S"/>
    </vehicle>
    <vehicle id="246" depart="319.80">
        <route edges="N2C C2E"/>
    </vehicle>
    <vehicle id="247" depart="321.10">
        <route edges="N2C C2S"/>
    </vehicle>
    <vehicle id="248" depart="322.40">
        <route edges="N2C C2E"/>
    </vehicle>
    <vehicle id="249" depart="323.70">
        <route edges="N2C C2E"/>
    </vehicle>
    <vehicle id="250" depart="325.00">
        <route edges="S2C C2E"/>
    </vehicle>
    <vehicle id="251" depart="326.30">
        <route edges="N2C C2S"/>
    </vehicle>
    <vehicle id="252" depart="327.60">
        <route edges="E2C C2S"/>
    </vehicle>
    <vehicle id="253" depart="328.90">
        <route edges="E2C C2N"/>
    </vehicle>
    <vehicle id="254" depart="330.20">
        <route edges="E2C C2N"/>
    </vehicle>
    <vehicle id="255" depart="331.50">
        <route edges="E2C C2N"/>
    </vehicle>
    <vehicle id="256" depart="332.80">
        <route edges="W2C C2N"/>
    </vehicle>
    <vehicle id="258" depart="335.40">
        <route edges="N2C C2E"/>
    </vehicle>
    <vehicle id="259" depart="336.70">
        <route edges="E2C C2S"/>
    </vehicle>
    <vehicle id="260" depart="338.00">
        <route edges="W2C C2N"/>
    </vehicle>
    <vehicle id="261" depart="339.30">
        <route edges="S2C C2W"/>
    </vehicle>
    <vehicle id="262" depart="340.60">
        <route edges="S2C C2W"/>
    </vehicle>
    <vehicle id="263" depart="341.90">
        <route edges="W2C C2E"/>
    </vehicle>
    <vehicle id="265" depart="344.50">
        <route edges="E2C C2S"/>
    </vehicle>
    <vehicle id="266" depart="345.80">
        <route edges="S2C C2E"/>
    </vehicle>
    <vehicle id="267" depart="347.10">
        <route edges="S2C C2W"/>
    </vehicle>
    <vehicle id="268" depart="348.40">
        <route edges="E2C C2S"/>
    </vehicle>
    <vehicle id="269" depart="349.70">
        <route edges="S2C C2E"/>
    </vehicle>
    <vehicle id="272" depart="353.60">
        <route edges="N2C C2S"/>
    </vehicle>
    <vehicle id="273" depart="354.90">
        <route edges="W2C C2N"/>
    </vehicle>
    <vehicle id="274" depart="356.20">
        <route edges="S2C C2E"/>
    </vehicle>
    <vehicle id="276" depart="358.80">
        <route edges="E2C C2W"/>
    </vehicle>
    <vehicle id="277" depart="360.10">
        <route edges="W2C C2S"/>
    </vehicle>
    <vehicle id="278" depart="361.40">
        <route edges="E2C C2W"/>
    </vehicle>
    <vehicle id="279" depart="362.70">
        <route edges="W2C C2N"/>
    </vehicle>
    <vehicle id="281" depart="365.30">
        <route edges="S2C C2N"/>
    </vehicle>
    <vehicle id="283" depart="367.90">
        <route edges="E2C C2W"/>
    </vehicle>
    <vehicle id="284" depart="369.20">
        <route edges="S2C C2W"/>
    </vehicle>
    <vehicle id="285" depart="370.50">
        <route edges="S2C C2N"/>
    </vehicle>
    <vehicle id="286" depart="371.80">
        <route edges="S2C C2W"/>
    </vehicle>
    <vehicle id="287" depart="373.10">
        <route edges="N2C C2W"/>
    </vehicle>
    <vehicle id="288" depart="374.40">
        <route edges="S2C C2N"/>
    </vehicle>
    <vehicle id="289" depart="375.70">
        <route edges="N2C C2S"/>
    </vehicle>
    <vehicle id="290" depart="377.00">
        <route edges="N2C C2W"/>
    </vehicle>
    <vehicle id="291" depart="378.30">
        <route edges="W2C C2E"/>
    </vehicle>
    <vehicle id="292" depart="379.60">
        <route edges="W2C C2E"/>
    </vehicle>
    <vehicle id="293" depart="380.90">
        <route edges="N2C C2S"/>
    </vehicle>
    <vehicle id="294" depart="382.20">
        <route edges="N2C C2E"/>
    </vehicle>
    <vehicle id="295" depart="383.50">
        <route edges="W2C C2E"/>
    </vehicle>
    <vehicle id="296" depart="384.80">
        <route edges="E2C C2W"/>
    </vehicle>
    <vehicle id="297" depart="386.10">
        <route edges="N2C C2W"/>
    </vehicle>
    <vehicle id="298" depart="387.40">
        <route edges="S2C C2N"/>
    </vehicle>
    <vehicle id="299" depart="388.70">
        <route edges="E2C C2W"/>
    </vehicle>
    <vehicle id="300" depart="390.00">
        <route edges="E2C C2S"/>
    </vehicle>
    <vehicle id="301" depart="391.30">
        <route edges="N2C C2W"/>
    </vehicle>
    <vehicle id="303" depart="393.90">
        <route edges="N2C C2W"/>
    </vehicle>
    <vehicle id="305" depart="396.50">
        <route edges="S2C C2N"/>
    </vehicle>
    <vehicle id="306" depart="397.80">
        <route edges="S2C C2N"/>
    </vehicle>
    <vehicle id="307" depart="399.10">
        <route edges="S2C C2N"/>
    </vehicle>
    <vehicle id="308" depart="400.40">
        <route edges="S2C C2N"/>
    </vehicle>
    <vehicle id="309" depart="401.70">
        <route edges="S2C C2N"/>
    </vehicle>
    <vehicle id="310" depart="403.00">
        <route edges="N2C C2E"/>
    </vehicle>
    <vehicle id="312" depart="405.60">
        <route edges="S2C C2W"/>
    </vehicle>
    <vehicle id="314" depart="408.20">
        <route edges="N2C C2S"/>
    </vehicle>
    <vehicle id="315" depart="409.50">
        <route edges="W2C C2S"/>
    </vehicle>
    <vehicle id="316" depart="410.80">
        <route edges="N2C C2E"/>
    </vehicle>
    <vehicle id="319" depart="414.70">
        <route edges="S2C C2N"/>
    </vehicle>
    <vehicle id="320" depart="416.00">
        <route edges="W2C C2S"/>
    </vehicle>
    <vehicle id="321" depart="417.30">
        <route edges="S2C C2E"/>
    </vehicle>
    <vehicle id="322" depart="418.60">
        <route edges="W2C C2N"/>
    </vehicle>
    <vehicle id="323" depart="419.90">
        <route edges="W2C C2S"/>
    </vehicle>
    <vehicle id="326" depart="423.80">
        <route edges="W2C C2N"/>
    </vehicle>
    <vehicle id="327" depart="425.10">
        <route edges="W2C C2N"/>
    </vehicle>
    <vehicle id="328" depart="426.40">
        <route edges="E2C C2S"/>
    </vehicle>
    <vehicle id="330" depart="429.00">
        <route edges="S2C C2N"/>
    </vehicle>
    <vehicle id="331" depart="430.30">
        <route edges="W2C C2E"/>
    </vehicle>
    <vehicle id="332" depart="431.60">
        <route edges="W2C C2S"/>
    </vehicle>
    <vehicle id="333" depart="432.90">
        <route edges="W2C C2E"/>
    </vehicle>
    <vehicle id="334" depart="434.20">
        <route edges="S2C C2N"/>
    </vehicle>
    <vehicle id="335" depart="435.50">
        <route edges="N2C C2W"/>
    </vehicle>
    <vehicle id="336" depart="436.80">
        <route edges="W2C C2N"/>
    </vehicle>
    <vehicle id="338" depart="439.40">
        <route edges="S2C C2W"/>
    </vehicle>
    <vehicle id="340" depart="442.00">
        <route edges="S2C C2E"/>
    </vehicle>
    <vehicle id="342" depart="444.60">
        <route edges="E2C C2N"/>
    </vehicle>
    <vehicle id="343" depart="445.90">
        <route edges="S2C C2N"/>
    </vehicle>
    <vehicle id="344" depart="447.20">
        <route edges="E2C C2S"/>
    </vehicle>
    <vehicle id="345" depart="448.50">
        <route edges="S2C C2N"/>
    </vehicle>
    <vehicle id="346" depart="449.80">
        <route edges="S2C C2W"/>
    </vehicle>
    <vehicle id="347" depart="451.10">
        <route edges="W2C C2S"/>
    </vehicle>
    <vehicle id="348" depart="452.40">
        <route edges="S2C C2W"/>
    </vehicle>
    <vehicle id="349" depart="453.70">
        <route edges="N2C C2S"/>
    </vehicle>
    <vehicle id="350" depart="455.00">
        <route edges="S2C C2W"/>
    </vehicle>
    <vehicle id="351" depart="456.30">
        <route edges="W2C C2E"/>
    </vehicle>
    <vehicle id="352" depart="457.60">
        <route edges="E2C C2N"/>
    </vehicle>
    <vehicle id="354" depart="460.20">
        <route edges="N2C C2E"/>
    </vehicle>
    <vehicle id="356" depart="462.80">
        <route edges="W2C C2S"/>
    </vehicle>
    <vehicle id="357" depart="464.10">
        <route edges="N2C C2E"/>
    </vehicle>
    <vehicle id="358" depart="465.40">
        <route edges="E2C C2N"/>
    </vehicle>
    <vehicle id="360" depart="468.00">
        <route edges="E2C C2W"/>
    </vehicle>
    <vehicle id="361" depart="469.30">
        <route edges="W2C C2S"/>
    </vehicle>
    <vehicle id="363" depart="471.90">
        <route edges="S2C C2N"/>
    </vehicle>
    <vehicle id="364" depart="473.20">
        <route edges="E2C C2W"/>
    </vehicle>
    <vehicle id="365" depart="474.50">
        <route edges="N2C C2S"/>
    </vehicle>
    <vehicle id="366" depart="475.80">
        <route edges="W2C C2E"/>
    </vehicle>
    <vehicle id="368" depart="478.40">
        <route edges="N2C C2E"/>
    </vehicle>
    <vehicle id="370" depart="481.00">
        <route edges="S2C C2W"/>
    </vehicle>
    <vehicle id="371" depart="482.30">
        <route edges="N2C C2S"/>
    </vehicle>
    <vehicle id="372" depart="483.60">
        <route edges="N2C C2W"/>
    </vehicle>
    <vehicle id="373" depart="484.90">
        <route edges="W2C C2S"/>
    </vehicle>
    <vehicle id="375" depart="487.50">
        <route edges="N2C C2W"/>
    </vehicle>
    <vehicle id="376" depart="488.80">
        <route edges="N2C C2S"/>
    </vehicle>
    <vehicle id="377" depart="490.10">
        <route edges="W2C C2S"/>
    </vehicle>
    <vehicle id="378" depart="491.40">
        <route edges="S2C C2N"/>
    </vehicle>
    <vehicle id="379" depart="492.70">
        <route edges="E2C C2N"/>
    </vehicle>
    <vehicle id="380" depart="494.00">
        <route edges="W2C C2S"/>
    </vehicle>
    <vehicle id="381" depart="495.30">
        <route edges="W2C C2E"/>
    </vehicle>
    <vehicle id="382" depart="496.60">
        <route edges="S2C C2W"/>
    </vehicle>
    <vehicle id="383" depart="497.90">
        <route edges="N2C C2S"/>
    </vehicle>
    <vehicle id="384" depart="499.20">
        <route edges="E2C C2W"/>
    </vehicle>
    <vehicle id="385" depart="500.50">
        <route edges="S2C C2E"/>
    </vehicle>
    <vehicle id="386" depart="501.80">
        <route edges="E2C C2S"/>
    </vehicle>
    <vehicle id="387" depart="503.10">
        <route edges="S2C C2E"/>
    </vehicle>
    <vehicle id="389" depart="505.70">
        <route edges="N2C C2E"/>
    </vehicle>
    <vehicle id="390" depart="507.00">
        <route edges="W2C C2N"/>
    </vehicle>
    <vehicle id="392" depart="509.60">
        <route edges="N2C C2W"/>
    </vehicle>
    <vehicle id="393" depart="510.90">
        <route edges="W2C C2E"/>
    </vehicle>
    <vehicle id="394" depart="512.20">
        <route edges="S2C C2N"/>
    </vehicle>
    <vehicle id="395" depart="513.50">
        <route edges="W2C C2S"/>
    </vehicle>
    <vehicle id="397" depart="516.10">
        <route edges="N2C C2W"/>
    </vehicle>
    <vehicle id="398" depart="517.40">
        <route edges="N2C C2W"/>
    </vehicle>
    <vehicle id="399" depart="518.70">
        <route edges="S2C C2W"/>
    </vehicle>
    <vehicle id="401" depart="521.30">
        <route edges="S2C C2W"/>
    </vehicle>
    <vehicle id="402" depart="522.60">
        <route edges="N2C C2E"/>
    </vehicle>
    <vehicle id="403" depart="523.90">
        <route edges="S2C C2N"/>
    </vehicle>
    <vehicle id="406" depart="527.80">
        <route edges="E2C C2S"/>
    </vehicle>
    <vehicle id="407" depart="529.10">
        <route edges="S2C C2E"/>
    </vehicle>
    <vehicle id="408" depart="530.40">
        <route edges="W2C C2E"/>
    </vehicle>
    <vehicle id="410" depart="533.00">
        <route edges="W2C C2N"/>
    </vehicle>
    <vehicle id="411" depart="534.30">
        <route edges="S2C C2W"/>
    </vehicle>
    <vehicle id="412" depart="535.60">
        <route edges="W2C C2N"/>
    </vehicle>
    <vehicle id="413" depart="536.90">
        <route edges="E2C C2S"/>
    </vehicle>
    <vehicle id="414" depart="538.20">
        <route edges="S2C C2W"/>
    </vehicle>
    <vehicle id="415" depart="539.50">
        <route edges="W2C C2N"/>
    </vehicle>
    <vehicle id="416" depart="540.80">
        <route edges="S2C C2N"/>
    </vehicle>
    <vehicle id="417" depart="542.10">
        <route edges="S2C C2N"/>
    </vehicle>
    <vehicle id="418" depart="543.40">
        <route edges="S2C C2E"/>
    </vehicle>
    <vehicle id="419" depart="544.70">
        <route edges="N2C C2W"/>
    </vehicle>
    <vehicle id="420" depart="546.00">
        <route edges="N2C C2S"/>
    </vehicle>
    <vehicle id="421" depart="547.30">
        <route edges="S2C C2W"/>
    </vehicle>
    <vehicle id="424" depart="551.20">
        <route edges="S2C C2W"/>
    </vehicle>
    <vehicle id="425" depart="552.50">
        <route edges="W2C C2E"/>
    </vehicle>
    <vehicle id="426" depart="553.80">
        <route edges="E2C C2S"/>
    </vehicle>
    <vehicle id="428" depart="556.40">
        <route edges="S2C C2N"/>
    </vehicle>
    <vehicle id="429" depart="557.70">
        <route edges="E2C C2S"/>
    </vehicle>
    <vehicle id="430" depart="559.00">
        <route edges="W2C C2N"/>
    </vehicle>
    <vehicle id="431" depart="560.30">
        <route edges="S2C C2W"/>
    </vehicle>
    <vehicle id="432" depart="561.60">
        <route edges="E2C C2W"/>
    </vehicle>