<?xml version="1.0" encoding="UTF-8"?>
<!-- Two lanes per approach (right lane: through/right, left lane: through/left)
     at 13.89 m/s (50 km/h). Bidirectional links between each fringe node and C. -->
<edges>
    <edge id="N2C" from="N" to="C" numLanes="2" speed="13.89" priority="2"/>
    <edge id="C2N" from="C" to="N" numLanes="2" speed="13.89" priority="2"/>
    <edge id="S2C" from="S" to="C" numLanes="2" speed="13.89" priority="2"/>
    <edge id="C2S" from="C" to="S" numLanes="2" speed="13.89" priority="2"/>
    <edge id="E2C" from="E" to="C" numLanes="2" speed="13.89" priority="2"/>
    <edge id="C2E" from="C" to="E" numLanes="2" speed="13.89" priority="2"/>
    <edge id="W2C" from="W" to="C" numLanes="2" speed="13.89" priority="2"/>
    <edge id="C2W" from="C" to="W" numLanes="2" speed="13.89" priority="2"/>
</edges>
