<?xml version="1.0" encoding="UTF-8"?>

<!-- generated on 2026-06-21 05:03:03 by Eclipse SUMO netgenerate Version 1.22.0
<netgenerateConfiguration xmlns:xsi="http://www.w3.org/2001/XMLSchema-instance" xsi:noNamespaceSchemaLocation="http://sumo.dlr.de/xsd/netgenerateConfiguration.xsd">

    <grid_network>
        <grid value="true"/>
        <grid.number value="2"/>
        <grid.length value="200"/>
        <grid.attach-length value="150"/>
    </grid_network>

    <output>
        <output-file value="grid/grid.net.xml"/>
    </output>

    <building_defaults>
        <default.lanenumber value="2"/>
        <default.speed value="13.89"/>
    </building_defaults>

    <tls_building>
        <tls.guess value="true"/>
        <tls.green.time value="31"/>
        <tls.yellow.time value="4"/>
        <tls.default-type value="static"/>
    </tls_building>

    <junctions>
        <no-turnarounds value="true"/>
    </junctions>

</netgenerateConfiguration>
-->

<net version="1.20" junctionCornerDetail="5" limitTurnSpeed="5.50" xmlns:xsi="http://www.w3.org/2001/XMLSchema-instance" xsi:noNamespaceSchemaLocation="http://sumo.dlr.de/xsd/net_file.xsd">

    <location netOffset="0.00,0.00" convBoundary="0.00,0.00,500.00,500.00" origBoundary="0.00,0.00,500.00,500.00" projParameter="!"/>

    <edge id=":A0_0" function="internal">
        <lane id=":A0_0_0" index="0" speed="6.51" length="9.03" shape="145.20,160.40 144.85,157.95 143.80,156.20 142.05,155.15 139.60,154.80"/>
    </edge>
    <edge id=":A0_1" function="internal">
        <lane id=":A0_1_0" index="0" speed="13.89" length="20.80" shape="145.20,160.40 145.20,139.60"/>
        <lane id=":A0_1_1" index="1" speed="13.89" length="20.80" shape="148.40,160.40 148.40,139.60"/>
    </edge>
    <edge id=":A0_3" function="internal">
        <lane id=":A0_3_0" index="0" speed="9.26" length="5.01" shape="148.40,160.40 149.11,155.44"/>
    </edge>
    <edge id=":A0_16" function="internal">
        <lane id=":A0_16_0" index="0" speed="9.26" length="14.34" shape="149.11,155.44 149.15,155.15 151.40,151.40 155.15,149.15 160.40,148.40"/>
    </edge>
    <edge id=":A0_4" function="internal">
        <lane id=":A0_4_0" index="0" speed="6.51" length="9.03" shape="160.40,154.80 157.95,155.15 156.20,156.20 155.15,157.95 154.80,160.40"/>
    </edge>
    <edge id=":A0_5" function="internal">
        <lane id=":A0_5_0" index="0" speed="13.89" length="20.80" shape="160.40,154.80 139.60,154.80"/>
        <lane id=":A0_5_1" index="1" speed="13.89" length="20.80" shape="160.40,151.60 139.60,151.60"/>
    </edge>
    <edge id=":A0_7" function="internal">
        <lane id=":A0_7_0" index="0" speed="9.26" length="5.01" shape="160.40,151.60 155.44,150.89"/>
    </edge>
    <edge id=":A0_17" function="internal">
        <lane id=":A0_17_0" index="0" speed="9.26" length="14.34" shape="155.44,150.89 155.15,150.85 151.40,148.60 149.15,144.85 148.40,139.60"/>
    </edge>
    <edge id=":A0_8" function="internal">
        <lane id=":A0_8_0" index="0" speed="6.51" length="9.03" shape="154.80,139.60 155.15,142.05 156.20,143.80 157.95,144.85 160.40,145.20"/>
    </edge>
    <edge id=":A0_9" function="internal">
        <lane id=":A0_9_0" index="0" speed="13.89" length="20.80" shape="154.80,139.60 154.80,160.40"/>
        <lane id=":A0_9_1" index="1" speed="13.89" length="20.80" shape="151.60,139.60 151.60,160.40"/>
    </edge>
    <edge id=":A0_11" function="internal">
        <lane id=":A0_11_0" index="0" speed="9.26" length="5.01" shape="151.60,139.60 150.89,144.56"/>
    </edge>
    <edge id=":A0_18" function="internal">
        <lane id=":A0_18_0" index="0" speed="9.26" length="14.34" shape="150.89,144.56 150.85,144.85 148.60,148.60 144.85,150.85 139.60,151.60"/>
    </edge>
    <edge id=":A0_12" function="internal">
        <lane id=":A0_12_0" index="0" speed="6.51" length="9.03" shape="139.60,145.20 142.05,144.85 143.80,143.80 144.85,142.05 145.20,139.60"/>
    </edge>
    <edge id=":A0_13" function="internal">
        <lane id=":A0_13_0" index="0" speed="13.89" length="20.80" shape="139.60,145.20 160.40,145.20"/>
        <lane id=":A0_13_1" index="1" speed="13.89" length="20.80" shape="139.60,148.40 160.40,148.40"/>
    </edge>
    <edge id=":A0_15" function="internal">
        <lane id=":A0_15_0" index="0" speed="9.26" length="5.01" shape="139.60,148.40 144.56,149.11"/>
    </edge>
    <edge id=":A0_19" function="internal">
        <lane id=":A0_19_0" index="0" speed="9.26" length="14.34" shape="144.56,149.11 144.85,149.15 148.60,151.40 150.85,155.15 151.60,160.40"/>
    </edge>
    <edge id=":A1_0" function="internal">
        <lane id=":A1_0_0" index="0" speed="6.51" length="9.03" shape="145.20,360.40 144.85,357.95 143.80,356.20 142.05,355.15 139.60,354.80"/>
    </edge>
    <edge id=":A1_1" function="internal">
        <lane id=":A1_1_0" index="0" speed="13.89" length="20.80" shape="145.20,360.40 145.20,339.60"/>
        <lane id=":A1_1_1" index="1" speed="13.89" length="20.80" shape="148.40,360.40 148.40,339.60"/>
    </edge>
    <edge id=":A1_3" function="internal">
        <lane id=":A1_3_0" index="0" speed="9.26" length="5.01" shape="148.40,360.40 149.11,355.44"/>
    </edge>
    <edge id=":A1_16" function="internal">
        <lane id=":A1_16_0" index="0" speed="9.26" length="14.34" shape="149.11,355.44 149.15,355.15 151.40,351.40 155.15,349.15 160.40,348.40"/>
    </edge>
    <edge id=":A1_4" function="internal">
        <lane id=":A1_4_0" index="0" speed="6.51" length="9.03" shape="160.40,354.80 157.95,355.15 156.20,356.20 155.15,357.95 154.80,360.40"/>
    </edge>
    <edge id=":A1_5" function="internal">
        <lane id=":A1_5_0" index="0" speed="13.89" length="20.80" shape="160.40,354.80 139.60,354.80"/>
        <lane id=":A1_5_1" index="1" speed="13.89" length="20.80" shape="160.40,351.60 139.60,351.60"/>
    </edge>
    <edge id=":A1_7" function="internal">
        <lane id=":A1_7_0" index="0" speed="9.26" length="5.01" shape="160.40,351.60 155.44,350.89"/>
    </edge>
    <edge id=":A1_17" function="internal">
        <lane id=":A1_17_0" index="0" speed="9.26" length="14.34" shape="155.44,350.89 155.15,350.85 151.40,348.60 149.15,344.85 148.40,339.60"/>
    </edge>
    <edge id=":A1_8" function="internal">
        <lane id=":A1_8_0" index="0" speed="6.51" length="9.03" shape="154.80,339.60 155.15,342.05 156.20,343.80 157.95,344.85 160.40,345.20"/>
    </edge>
    <edge id=":A1_9" function="internal">
        <lane id=":A1_9_0" index="0" speed="13.89" length="20.80" shape="154.80,339.60 154.80,360.40"/>
        <lane id=":A1_9_1" index="1" speed="13.89" length="20.80" shape="151.60,339.60 151.60,360.40"/>
    </edge>
    <edge id=":A1_11" function="internal">
        <lane id=":A1_11_0" index="0" speed="9.26" length="5.01" shape="151.60,339.60 150.89,344.56"/>
    </edge>
    <edge id=":A1_18" function="internal">
        <lane id=":A1_18_0" index="0" speed="9.26" length="14.34" shape="150.89,344.56 150.85,344.85 148.60,348.60 144.85,350.85 139.60,351.60"/>
    </edge>
    <edge id=":A1_12" function="internal">
        <lane id=":A1_12_0" index="0" speed="6.51" length="9.03" shape="139.60,345.20 142.05,344.85 143.80,343.80 144.85,342.05 145.20,339.60"/>
    </edge>
    <edge id=":A1_13" function="internal">
        <lane id=":A1_13_0" index="0" speed="13.89" length="20.80" shape="139.60,345.20 160.40,345.20"/>
        <lane id=":A1_13_1" index="1" speed="13.89" length="20.80" shape="139.60,348.40 160.40,348.40"/>
    </edge>
    <edge id=":A1_15" function="internal">
        <lane id=":A1_15_0" index="0" speed="9.26" length="5.01" shape="139.60,348.40 144.56,349.11"/>
    </edge>
    <edge id=":A1_19" function="internal">
        <lane id=":A1_19_0" index="0" speed="9.26" length="14.34" shape="144.56,349.11 144.85,349.15 148.60,351.40 150.85,355.15 151.60,360.40"/>
    </edge>
    <edge id=":B0_0" function="internal">
        <lane id=":B0_0_0" index="0" speed="6.51" length="9.03" shape="345.20,160.40 344.85,157.95 343.80,156.20 342.05,155.15 339.60,154.80"/>
    </edge>
    <edge id=":B0_1" function="internal">
        <lane id=":B0_1_0" index="0" speed="13.89" length="20.80" shape="345.20,160.40 345.20,139.60"/>
        <lane id=":B0_1_1" index="1" speed="13.89" length="20.80" shape="348.40,160.40 348.40,139.60"/>
    </edge>
    <edge id=":B0_3" function="internal">
        <lane id=":B0_3_0" index="0" speed="9.26" length="5.01" shape="348.40,160.40 349.11,155.44"/>
    </edge>
    <edge id=":B0_16" function="internal">
        <lane id=":B0_16_0" index="0" speed="9.26" length="14.34" shape="349.11,155.44 349.15,155.15 351.40,151.40 355.15,149.15 360.40,148.40"/>
    </edge>
    <edge id=":B0_4" function="internal">
        <lane id=":B0_4_0" index="0" speed="6.51" length="9.03" shape="360.40,154.80 357.95,155.15 356.20,156.20 355.15,157.95 354.80,160.40"/>
    </edge>
    <edge id=":B0_5" function="internal">
        <lane id=":B0_5_0" index="0" speed="13.89" length="20.80" shape="360.40,154.80 339.60,154.80"/>
        <lane id=":B0_5_1" index="1" speed="13.89" length="20.80" shape="360.40,151.60 339.60,151.60"/>
    </edge>
    <edge id=":B0_7" function="internal">
        <lane id=":B0_7_0" index="0" speed="9.26" length="5.01" shape="360.40,151.60 355.44,150.89"/>
    </edge>
    <edge id=":B0_17" function="internal">
        <lane id=":B0_17_0" index="0" speed="9.26" length="14.34" shape="355.44,150.89 355.15,150.85 351.40,148.60 349.15,144.85 348.40,139.60"/>
    </edge>
    <edge id=":B0_8" function="internal">
        <lane id=":B0_8_0" index="0" speed="6.51" length="9.03" shape="354.80,139.60 355.15,142.05 356.20,143.80 357.95,144.85 360.40,145.20"/>
    </edge>
    <edge id=":B0_9" function="internal">
        <lane id=":B0_9_0" index="0" speed="13.89" length="20.80" shape="354.80,139.60 354.80,160.40"/>
        <lane id=":B0_9_1" index="1" speed="13.89" length="20.80" shape="351.60,139.60 351.60,160.40"/>
    </edge>
    <edge id=":B0_11" function="internal">
        <lane id=":B0_11_0" index="0" speed="9.26" length="5.01" shape="351.60,139.60 350.89,144.56"/>
    </edge>
    <edge id=":B0_18" function="internal">
        <lane id=":B0_18_0" index="0" speed="9.26" length="14.34" shape="350.89,144.56 350.85,144.85 348.60,148.60 344.85,150.85 339.60,151.60"/>
    </edge>
    <edge id=":B0_12" function="internal">
        <lane id=":B0_12_0" index="0" speed="6.51" length="9.03" shape="339.60,145.20 342.05,144.85 343.80,143.80 344.85,142.05 345.20,139.60"/>
    </edge>
    <edge id=":B0_13" function="internal">
        <lane id=":B0_13_0" index="0" speed="13.89" length="20.80" shape="339.60,145.20 360.40,145.20"/>
        <lane id=":B0_13_1" index="1" speed="13.89" length="20.80" shape="339.60,148.40 360.40,148.40"/>
    </edge>
    <edge id=":B0_15" function="internal">
        <lane id=":B0_15_0" index="0" speed="9.26" length="5.01" shape="339.60,148.40 344.56,149.11"/>
    </edge>
    <edge id=":B0_19" function="internal">
        <lane id=":B0_19_0" index="0" speed="9.26" length="14.34" shape="344.56,149.11 344.85,149.15 348.60,151.40 350.85,155.15 351.60,160.40"/>
    </edge>
    <edge id=":B1_0" function="internal">
        <lane id=":B1_0_0" index="0" speed="6.51" length="9.03" shape="345.20,360.40 344.85,357.95 343.80,356.20 342.05,355.15 339.60,354.80"/>
    </edge>
    <edge id=":B1_1" function="internal">
        <lane id=":B1_1_0" index="0" speed="13.89" length="20.80" shape="345.20,360.40 345.20,339.60"/>
        <lane id=":B1_1_1" index="1" speed="13.89" length="20.80" shape="348.40,360.40 348.40,339.60"/>
    </edge>
    <edge id=":B1_3" function="internal">
        <lane id=":B1_3_0" index="0" speed="9.26" length="5.01" shape="348.40,360.40 349.11,355.44"/>
    </edge>
    <edge id=":B1_16" function="internal">
        <lane id=":B1_16_0" index="0" speed="9.26" length="14.34" shape="349.11,355.44 349.15,355.15 351.40,351.40 355.15,349.15 360.40,348.40"/>
    </edge>
    <edge id=":B1_4" function="internal">
        <lane id=":B1_4_0" index="0" speed="6.51" length="9.03" shape="360.40,354.80 357.95,355.15 356.20,356.20 355.15,357.95 354.80,360.40"/>
    </edge>
    <edge id=":B1_5" function="internal">
        <lane id=":B1_5_0" index="0" speed="13.89" length="20.80" shape="360.40,354.80 339.60,354.80"/>
        <lane id=":B1_5_1" index="1" speed="13.89" length="20.80" shape="360.40,351.60 339.60,351.60"/>
    </edge>
    <edge id=":B1_7" function="internal">
        <lane id=":B1_7_0" index="0" speed="9.26" length="5.01" shape="360.40,351.60 355.44,350.89"/>
    </edge>
    <edge id=":B1_17" function="internal">
        <lane id=":B1_17_0" index="0" speed="9.26" length="14.34" shape="355.44,350.89 355.15,350.85 351.40,348.60 349.15,344.85 348.40,339.60"/>
    </edge>
    <edge id=":B1_8" function="internal">
        <lane id=":B1_8_0" index="0" speed="6.51" length="9.03" shape="354.80,339.60 355.15,342.05 356.20,343.80 357.95,344.85 360.40,345.20"/>
    </edge>
    <edge id=":B1_9" function="internal">
        <lane id=":B1_9_0" index="0" speed="13.89" length="20.80" shape="354.80,339.60 354.80,360.40"/>
        <lane id=":B1_9_1" index="1" speed="13.89" length="20.80" shape="351.60,339.60 351.60,360.40"/>
    </edge>
    <edge id=":B1_11" function="internal">
        <lane id=":B1_11_0" index="0" speed="9.26" length="5.01" shape="351.60,339.60 350.89,344.56"/>
    </edge>
    <edge id=":B1_18" function="internal">
        <lane id=":B1_18_0" index="0" speed="9.26" length="14.34" shape="350.89,344.56 350.85,344.85 348.60,348.60 344.85,350.85 339.60,351.60"/>
    </edge>
    <edge id=":B1_12" function="internal">
        <lane id=":B1_12_0" index="0" speed="6.51" length="9.03" shape="339.60,345.20 342.05,344.85 343.80,343.80 344.85,342.05 345.20,339.60"/>
    </edge>
    <edge id=":B1_13" function="internal">
        <lane id=":B1_13_0" index="0" speed="13.89" length="20.80" shape="339.60,345.20 360.40,345.20"/>
        <lane id=":B1_13_1" index="1" speed="13.89" length="20.80" shape="339.60,348.40 360.40,348.40"/>
    </edge>
    <edge id=":B1_15" function="internal">
        <lane id=":B1_15_0" index="0" speed="9.26" length="5.01" shape="339.60,348.40 344.56,349.11"/>
    </edge>
    <edge id=":B1_19" function="internal">
        <lane id=":B1_19_0" index="0" speed="9.26" length="14.34" shape="344.56,349.11 344.85,349.15 348.60,351.40 350.85,355.15 351.60,360.40"/>
    </edge>

    <edge id="A0A1" from="A0" to="A1" priority="-1">
        <lane id="A0A1_0" index="0" speed="13.89" length="179.20" shape="154.80,160.40 154.80,339.60"/>
        <lane id="A0A1_1" index="1" speed="13.89" length="179.20" shape="151.60,160.40 151.60,339.60"/>
    </edge>
    <edge id="A0B0" from="A0" to="B0" priority="-1">
        <lane id="A0B0_0" index="0" speed="13.89" length="179.20" shape="160.40,145.20 339.60,145.20"/>
        <lane id="A0B0_1" index="1" speed="13.89" length="179.20" shape="160.40,148.40 339.60,148.40"/>
    </edge>
    <edge id="A0bottom0" from="A0" to="bottom0" priority="-1">
        <lane id="A0bottom0_0" index="0" speed="13.89" length="139.60" shape="145.20,139.60 145.20,0.00"/>
        <lane id="A0bottom0_1" index="1" speed="13.89" length="139.60" shape="148.40,139.60 148.40,0.00"/>
    </edge>
    <edge id="A0left0" from="A0" to="left0" priority="-1">
        <lane id="A0left0_0" index="0" speed="13.89" length="139.60" shape="139.60,154.80 0.00,154.80"/>
        <lane id="A0left0_1" index="1" speed="13.89" length="139.60" shape="139.60,151.60 0.00,151.60"/>
    </edge>
    <edge id="A1A0" from="A1" to="A0" priority="-1">
        <lane id="A1A0_0" index="0" speed="13.89" length="179.20" shape="145.20,339.60 145.20,160.40"/>
        <lane id="A1A0_1" index="1" speed="13.89" length="179.20" shape="148.40,339.60 148.40,160.40"/>
    </edge>
    <edge id="A1B1" from="A1" to="B1" priority="-1">
        <lane id="A1B1_0" index="0" speed="13.89" length="179.20" shape="160.40,345.20 339.60,345.20"/>
        <lane id="A1B1_1" index="1" speed="13.89" length="179.20" shape="160.40,348.40 339.60,348.40"/>
    </edge>
    <edge id="A1left1" from="A1" to="left1" priority="-1">
        <lane id="A1left1_0" index="0" speed="13.89" length="139.60" shape="139.60,354.80 0.00,354.80"/>
        <lane id="A1left1_1" index="1" speed="13.89" length="139.60" shape="139.60,351.60 0.00,351.60"/>
    </edge>
    <edge id="A1top0" from="A1" to="top0" priority="-1">
        <lane id="A1top0_0" index="0" speed="13.89" length="139.60" shape="154.80,360.40 154.80,500.00"/>
        <lane id="A1top0_1" index="1" speed="13.89" length="139.60" shape="151.60,360.40 151.60,500.00"/>
    </edge>
    <edge id="B0A0" from="B0" to="A0" priority="-1">
        <lane id="B0A0_0" index="0" speed="13.89" length="179.20" shape="339.60,154.80 160.40,154.80"/>
        <lane id="B0A0_1" index="1" speed="13.89" length="179.20" shape="339.60,151.60 160.40,151.60"/>
    </edge>
    <edge id="B0B1" from="B0" to="B1" priority="-1">
        <lane id="B0B1_0" index="0" speed="13.89" length="179.20" shape="354.80,160.40 354.80,339.60"/>
        <lane id="B0B1_1" index="1" speed="13.89" length="179.20" shape="351.60,160.40 351.60,339.60"/>
    </edge>
    <edge id="B0bottom1" from="B0" to="bottom1" priority="-1">
        <lane id="B0bottom1_0" index="0" speed="13.89" length="139.60" shape="345.20,139.60 345.20,0.00"/>
        <lane id="B0bottom1_1" index="1" speed="13.89" length="139.60" shape="348.40,139.60 348.40,0.00"/>
    </edge>
    <edge id="B0right0" from="B0" to="right0" priority="-1">
        <lane id="B0right0_0" index="0" speed="13.89" length="139.60" shape="360.40,145.20 500.00,145.20"/>
        <lane id="B0right0_1" index="1" speed="13.89" length="139.60" shape="360.40,148.40 500.00,148.40"/>
    </edge>
    <edge id="B1A1" from="B1" to="A1" priority="-1">
        <lane id="B1A1_0" index="0" speed="13.89" length="179.20" shape="339.60,354.80 160.40,354.80"/>
        <lane id="B1A1_1" index="1" speed="13.89" length="179.20" shape="339.60,351.60 160.40,351.60"/>
    </edge>
    <edge id="B1B0" from="B1" to="B0" priority="-1">
        <lane id="B1B0_0" index="0" speed="13.89" length="179.20" shape="345.20,339.60 345.20,160.40"/>
        <lane id="B1B0_1" index="1" speed="13.89" length="179.20" shape="348.40,339.60 348.40,160.40"/>
    </edge>
    <edge id="B1right1" from="B1" to="right1" priority="-1">
        <lane id="B1right1_0" index="0" speed="13.89" length="139.60" shape="360.40,345.20 500.00,345.20"/>
        <lane id="B1right1_1" index="1" speed="13.89" length="139.60" shape="360.40,348.40 500.00,348.40"/>
    </edge>
    <edge id="B1top1" from="B1" to="top1" priority="-1">
        <lane id="B1top1_0" index="0" speed="13.89" length="139.60" shape="354.80,360.40 354.80,500.00"/>
        <lane id="B1top1_1" index="1" speed="13.89" length="139.60" shape="351.60,360.40 351.60,500.00"/>
    </edge>
    <edge id="bottom0A0" from="bottom0" to="A0" priority="-1">
        <lane id="bottom0A0_0" index="0" speed="13.89" length="139.60" shape="154.80,0.00 154.80,139.60"/>
        <lane id="bottom0A0_1" index="1" speed="13.89" length="139.60" shape="151.60,0.00 151.60,139.60"/>
    </edge>
    <edge id="bottom1B0" from="bottom1" to="B0" priority="-1">
        <lane id="bottom1B0_0" index="0" speed="13.89" length="139.60" shape="354.80,0.00 354.80,139.60"/>
        <lane id="bottom1B0_1" index="1" speed="13.89" length="139.60" shape="351.60,0.00 351.60,139.60"/>
    </edge>
    <edge id="left0A0" from="left0" to="A0" priority="-1">
        <lane id="left0A0_0" index="0" speed="13.89" length="139.60" shape="0.00,145.20 139.60,145.20"/>
        <lane id="left0A0_1" index="1" speed="13.89" length="139.60" shape="0.00,148.40 139.60,148.40"/>
    </edge>
    <edge id="left1A1" from="left1" to="A1" priority="-1">
        <lane id="left1A1_0" index="0" speed="13.89" length="139.60" shape="0.00,345.20 139.60,345.20"/>
        <lane id="left1A1_1" index="1" speed="13.89" length="139.60" shape="0.00,348.40 139.60,348.40"/>
    </edge>
    <edge id="right0B0" from="right0" to="B0" priority="-1">
        <lane id="right0B0_0" index="0" speed="13.89" length="139.60" shape="500.00,154.80 360.40,154.80"/>
        <lane id="right0B0_1" index="1" speed="13.89" length="139.60" shape="500.00,151.60 360.40,151.60"/>
    </edge>
    <edge id="right1B1" from="right1" to="B1" priority="-1">
        <lane id="right1B1_0" index="0" speed="13.89" length="139.60" shape="500.00,354.80 360.40,354.80"/>
        <lane id="right1B1_1" index="1" speed="13.89" length="139.60" shape="500.00,351.60 360.40,351.60"/>
    </edge>
    <edge id="top0A1" from="top0" to="A1" priority="-1">
        <lane id="top0A1_0" index="0" speed="13.89" length="139.60" shape="145.20,500.00 145.20,360.40"/>
        <lane id="top0A1_1" index="1" speed="13.89" length="139.60" shape="148.40,500.00 148.40,360.40"/>
    </edge>
    <edge id="top1B1" from="top1" to="B1" priority="-1">
        <lane id="top1B1_0" index="0" speed="13.89" length="139.60" shape="345.20,500.00 345.20,360.40"/>
        <lane id="top1B1_1" index="1" speed="13.89" length="139.60" shape="348.40,500.00 348.40,360.40"/>
    </edge>

    <tlLogic id="A0" type="static" programID="0" offset="0">
        <phase duration="31" state="GGGgrrrrGGGgrrrr"/>
        <phase duration="4"  state="yyyyrrrryyyyrrrr"/>
        <phase duration="31" state="rrrrGGGgrrrrGGGg"/>
        <phase duration="4"  state="rrrryyyyrrrryyyy"/>
    </tlLogic>
    <tlLogic id="A1" type="static" programID="0" offset="0">
        <phase duration="31" state="GGGgrrrrGGGgrrrr"/>
        <phase duration="4"  state="yyyyrrrryyyyrrrr"/>
        <phase duration="31" state="rrrrGGGgrrrrGGGg"/>
        <phase duration="4"  state="rrrryyyyrrrryyyy"/>
    </tlLogic>
    <tlLogic id="B0" type="static" programID="0" offset="0">
        <phase duration="31" state="GGGgrrrrGGGgrrrr"/>
        <phase duration="4"  state="yyyyrrrryyyyrrrr"/>
        <phase duration="31" state="rrrrGGGgrrrrGGGg"/>
        <phase duration="4"  state="rrrryyyyrrrryyyy"/>
    </tlLogic>
    <tlLogic id="B1" type="static" programID="0" offset="0">
        <phase duration="31" state="GGGgrrrrGGGgrrrr"/>
        <phase duration="4"  state="yyyyrrrryyyyrrrr"/>
        <phase duration="31" state="rrrrGGGgrrrrGGGg"/>
        <phase duration="4"  state="rrrryyyyrrrryyyy"/>
    </tlLogic>

    <junction id="A0" type="traffic_light" x="150.00" y="150.00" incLanes="A1A0_0 A1A0_1 B0A0_0 B0A0_1 bottom0A0_0 bottom0A0_1 left0A0_0 left0A0_1" intLanes=":A0_0_0 :A0_1_0 :A0_1_1 :A0_16_0 :A0_4_0 :A0_5_0 :A0_5_1 :A0_17_0 :A0_8_0 :A0_9_0 :A0_9_1 :A0_18_0 :A0_12_0 :A0_13_0 :A0_13_1 :A0_19_0" shape="143.60,160.40 156.40,160.40 156.84,158.18 157.40,157.40 158.18,156.84 159.18,156.51 160.40,156.40 160.40,143.60 158.18,143.16 157.40,142.60 156.84,141.82 156.51,140.82 156.40,139.60 143.60,139.60 143.16,141.82 142.60,142.60 141.82,143.16 140.82,143.49 139.60,143.60 139.60,156.40 141.82,156.84 142.60,157.40 143.16,158.18 143.49,159.18">
        <request index="0"  response="0000000000000000" foes="0000000001100000" cont="0"/>
        <request index="1"  response="1000000010000000" foes="1111100011100000" cont="0"/>
        <request index="2"  response="1000000010000000" foes="1111100011100000" cont="0"/>
        <request index="3"  response="1000011010000000" foes="1110011011100000" cont="1"/>
        <request index="4"  response="0000011000000000" foes="0000011000000000" cont="0"/>
        <request index="5"  response="0000111000001111" foes="1000111000001111" cont="0"/>
        <request index="6"  response="0000111000001111" foes="1000111000001111" cont="0"/>
        <request index="7"  response="0110111000001110" foes="0110111000001110" cont="1"/>
        <request index="8"  response="0000000000000000" foes="0110000000000000" cont="0"/>
        <request index="9"  response="1000000010000000" foes="1110000011111000" cont="0"/>
        <request index="10" response="1000000010000000" foes="1110000011111000" cont="0"/>
        <request index="11" response="1000000010000110" foes="1110000011100110" cont="1"/>
        <request index="12" response="0000000000000110" foes="0000000000000110" cont="0"/>
        <request index="13" response="0000111100001110" foes="0000111110001110" cont="0"/>
        <request index="14" response="0000111100001110" foes="0000111110001110" cont="0"/>
        <request index="15" response="0000111001101110" foes="0000111001101110" cont="1"/>
    </junction>
    <junction id="A1" type="traffic_light" x="150.00" y="350.00" incLanes="top0A1_0 top0A1_1 B1A1_0 B1A1_1 A0A1_0 A0A1_1 left1A1_0 left1A1_1" intLanes=":A1_0_0 :A1_1_0 :A1_1_1 :A1_16_0 :A1_4_0 :A1_5_0 :A1_5_1 :A1_17_0 :A1_8_0 :A1_9_0 :A1_9_1 :A1_18_0 :A1_12_0 :A1_13_0 :A1_13_1 :A1_19_0" shape="143.60,360.40 156.40,360.40 156.84,358.18 157.40,357.40 158.18,356.84 159.18,356.51 160.40,356.40 160.40,343.60 158.18,343.16 157.40,342.60 156.84,341.82 156.51,340.82 156.40,339.60 143.60,339.60 143.16,341.82 142.60,342.60 141.82,343.16 140.82,343.49 139.60,343.60 139.60,356.40 141.82,356.84 142.60,357.40 143.16,358.18 143.49,359.18">
        <request index="0"  response="0000000000000000" foes="0000000001100000" cont="0"/>
        <request index="1"  response="1000000010000000" foes="1111100011100000" cont="0"/>
        <request index="2"  response="1000000010000000" foes="1111100011100000" cont="0"/>
        <request index="3"  response="1000011010000000" foes="1110011011100000" cont="1"/>
        <request index="4"  response="0000011000000000" foes="0000011000000000" cont="0"/>
        <request index="5"  response="0000111000001111" foes="1000111000001111" cont="0"/>
        <request index="6"  response="0000111000001111" foes="1000111000001111" cont="0"/>
        <request index="7"  response="0110111000001110" foes="0110111000001110" cont="1"/>
        <request index="8"  response="0000000000000000" foes="0110000000000000" cont="0"/>
        <request index="9"  response="1000000010000000" foes="1110000011111000" cont="0"/>
        <request index="10" response="1000000010000000" foes="1110000011111000" cont="0"/>
        <request index="11" response="1000000010000110" foes="1110000011100110" cont="1"/>
        <request index="12" response="0000000000000110" foes="0000000000000110" cont="0"/>
        <request index="13" response="0000111100001110" foes="0000111110001110" cont="0"/>
        <request index="14" response="0000111100001110" foes="0000111110001110" cont="0"/>
        <request index="15" response="0000111001101110" foes="0000111001101110" cont="1"/>
    </junction>
    <junction id="B0" type="traffic_light" x="350.00" y="150.00" incLanes="B1B0_0 B1B0_1 right0B0_0 right0B0_1 bottom1B0_0 bottom1B0_1 A0B0_0 A0B0_1" intLanes=":B0_0_0 :B0_1_0 :B0_1_1 :B0_16_0 :B0_4_0 :B0_5_0 :B0_5_1 :B0_17_0 :B0_8_0 :B0_9_0 :B0_9_1 :B0_18_0 :B0_12_0 :B0_13_0 :B0_13_1 :B0_19_0" shape="343.60,160.40 356.40,160.40 356.84,158.18 357.40,157.40 358.18,156.84 359.18,156.51 360.40,156.40 360.40,143.60 358.18,143.16 357.40,142.60 356.84,141.82 356.51,140.82 356.40,139.60 343.60,139.60 343.16,141.82 342.60,142.60 341.82,143.16 340.82,143.49 339.60,143.60 339.60,156.40 341.82,156.84 342.60,157.40 343.16,158.18 343.49,159.18">
        <request index="0"  response="0000000000000000" foes="0000000001100000" cont="0"/>
        <request index="1"  response="1000000010000000" foes="1111100011100000" cont="0"/>
        <request index="2"  response="1000000010000000" foes="1111100011100000" cont="0"/>
        <request index="3"  response="1000011010000000" foes="1110011011100000" cont="1"/>
        <request index="4"  response="0000011000000000" foes="0000011000000000" cont="0"/>
        <request index="5"  response="0000111000001111" foes="1000111000001111" cont="0"/>
        <request index="6"  response="0000111000001111" foes="1000111000001111" cont="0"/>
        <request index="7"  response="0110111000001110" foes="0110111000001110" cont="1"/>
        <request index="8"  response="0000000000000000" foes="0110000000000000" cont="0"/>
        <request index="9"  response="1000000010000000" foes="1110000011111000" cont="0"/>
        <request index="10" response="1000000010000000" foes="1110000011111000" cont="0"/>
        <request index="11" response="1000000010000110" foes="1110000011100110" cont="1"/>
        <request index="12" response="0000000000000110" foes="0000000000000110" cont="0"/>
        <request index="13" response="0000111100001110" foes="0000111110001110" cont="0"/>
        <request index="14" response="0000111100001110" foes="0000111110001110" cont="0"/>
        <request index="15" response="0000111001101110" foes="0000111001101110" cont="1"/>
    </junction>
    <junction id="B1" type="traffic_light" x="350.00" y="350.00" incLanes="top1B1_0 top1B1_1 right1B1_0 right1B1_1 B0B1_0 B0B1_1 A1B1_0 A1B1_1" intLanes=":B1_0_0 :B1_1_0 :B1_1_1 :B1_16_0 :B1_4_0 :B1_5_0 :B1_5_1 :B1_17_0 :B1_8_0 :B1_9_0 :B1_9_1 :B1_18_0 :B1_12_0 :B1_13_0 :B1_13_1 :B1_19_0" shape="343.60,360.40 356.40,360.40 356.84,358.18 357.40,357.40 358.18,356.84 359.18,356.51 360.40,356.40 360.40,343.60 358.18,343.16 357.40,342.60 356.84,341.82 356.51,340.82 356.40,339.60 343.60,339.60 343.16,341.82 342.60,342.60 341.82,343.16 340.82,343.49 339.60,343.60 339.60,356.40 341.82,356.84 342.60,357.40 343.16,358.18 343.49,359.18">
        <request index="0"  response="0000000000000000" foes="0000000001100000" cont="0"/>
        <request index="1"  response="1000000010000000" foes="1111100011100000" cont="0"/>
        <request index="2"  response="1000000010000000" foes="1111100011100000" cont="0"/>
        <request index="3"  response="1000011010000000" foes="1110011011100000" cont="1"/>
        <request index="4"  response="0000011000000000" foes="0000011000000000" cont="0"/>
        <request index="5"  response="0000111000001111" foes="1000111000001111" cont="0"/>
        <request index="6"  response="0000111000001111" foes="1000111000001111" cont="0"/>